9
Properties=species:S:1:pos:R:3:momenta:R:3 pbc="F F F"
C       -0.02334644      -0.58987595       0.04249507       0.28574633       0.27311477      -0.26777706
C       -1.27180074       0.27627124       0.03248220       0.38753864       0.07772944      -0.67015452
O        1.11012980       0.26311751       0.04775370       0.20491343       0.11745435       1.45009456
H       -0.04293948      -1.25929280       0.94008402      -0.27315300      -0.17206820       0.45311882
H       -0.03147202      -1.26348216      -0.85213187      -0.05551244      -0.29644199       0.18327016
H       -1.29617309       0.93114535       0.92677660       0.05621518      -0.19074000      -0.06060743
H       -1.28470747       0.92695708      -0.86510229       0.13232232       0.23545437       0.16288893
H       -2.18806962      -0.34730757       0.02807682      -0.21491914       0.12189158      -0.05927825
H        1.90278353      -0.30176127       0.05414596      -0.03939700      -0.34655611      -0.01822206
9
Properties=species:S:1:pos:R:3:momenta:R:3 pbc="F F F"
C       -0.02555442      -0.74143444      -0.05440077      -0.14098837      -0.63918459       0.36892826
C       -1.16206508       0.27338365       0.03950528       0.44289298       0.41436253       0.17684817
O        1.24308247      -0.14353049      -0.25968259       0.10351587       0.20896796       0.48798499
H       -0.03416264      -1.40207514       0.84979794      -0.19047158       0.36269229       0.10054718
H       -0.18855072      -1.41043228      -0.92630081      -0.43596978      -0.89732663      -0.24514247
H       -1.03930496       0.93184707       0.92669257       0.09763756       0.01579131      -0.05976831
H       -1.18354715       0.91935933      -0.86144011       0.04871718       0.09720244      -0.10959636
H       -2.14734617      -0.22838904       0.13532317       0.02713029       0.19342500      -0.16948741
H        1.41185316       0.43704277       0.50508555       0.22549957       0.17779195      -0.11866942
9
Properties=species:S:1:pos:R:3:momenta:R:3 pbc="F F F"
C       -0.02492538      -0.74777204       0.06899758      -0.64119993      -0.61687853       1.05015898
C       -1.16180207       0.27073317       0.09111237       1.18061643       0.05999045       0.20919857
O        1.24604534      -0.17338227       0.32154280       0.10635525       0.15058071      -0.44538340
H       -0.17939702      -1.50265909       0.86938481      -0.02010636      -0.00547064      -0.35260465
H       -0.04307221      -1.31230795      -0.89799023       0.14520894      -0.08660722      -0.43579114
H       -1.17378750       0.82099663       1.05366893      -0.11770271       0.13741874      -0.29356272
H       -1.04772350       1.01668825      -0.72514894      -0.12405734      -0.11836656       0.16810763
H       -2.14826790      -0.21909754      -0.04558711      -0.20125883       0.19178700       0.23140633
H        1.40733472       0.48257227      -0.38139999      -0.21991471       0.24734661       0.13027626
